<configuration>
    <input>
        <net-file value="victoria-mckenzie-basic.net.xml"/>
        <route-files value="random_trips_mckenzie_basic.rou.xml"/>
    </input>
    <time>
        <begin value="0"/>
        <end value="3600"/>
    </time>
    <output>
    <fcd-output value="fcd.xml"/>
    <summary value="summary.xml"/>
    <emission-output value="emissions.xml"/>
</output>
</configuration>
