<?xml version="1.0" encoding="UTF-8"?>

<!-- generated on 2025-07-24 15:29:02 by Eclipse SUMO netedit Version 1.23.1
<neteditConfiguration xmlns:xsi="http://www.w3.org/2001/XMLSchema-instance" xsi:noNamespaceSchemaLocation="http://sumo.dlr.de/xsd/neteditConfiguration.xsd">

    <input>
        <sumocfg-file value="/Users/matt/Sumo/2025-07-24-15-19-31/osm.sumocfg"/>
        <additional-files value="/Users/matt/Sumo/2025-07-24-15-19-31/output.add.xml"/>
        <route-files value="/Users/matt/Sumo/2025-07-24-15-19-31/osm.passenger.trips.xml"/>
        <sumo-net-file value="/Users/matt/Documents/GitHub/greenlight/sumo_test/mckenzie-final-v1.net.xml"/>
    </input>

    <output>
        <output-file value="/Users/matt/Documents/GitHub/greenlight/sumo_test/mckenzie-final-v1.net.xml"/>
        <output.street-names value="true"/>
    </output>

    <processing>
        <geometry.min-radius.fix.railways value="false"/>
        <geometry.avoid-overlap value="false"/>
        <geometry.max-grade.fix value="false"/>
        <offset.disable-normalization value="true"/>
        <lefthand value="0"/>
    </processing>

    <junctions>
        <no-turnarounds value="true"/>
        <junctions.corner-detail value="5"/>
        <junctions.limit-turn-speed value="5.50"/>
        <rectangular-lane-cut value="0"/>
    </junctions>

    <pedestrian>
        <walkingareas value="0"/>
    </pedestrian>

    <netedit>
        <ignore.routeelements value="false"/>
    </netedit>

</neteditConfiguration>
-->

<net version="1.20" junctionCornerDetail="5" limitTurnSpeed="5.50" avoidOverlap="0" xmlns:xsi="http://www.w3.org/2001/XMLSchema-instance" xsi:noNamespaceSchemaLocation="http://sumo.dlr.de/xsd/net_file.xsd">

    <location netOffset="-471745.67,-5367626.74" convBoundary="388.63,180.93,4515.67,1902.85" origBoundary="-123.382236,48.461255,-123.302661,48.478281" projParameter="+proj=utm +zone=10 +ellps=WGS84 +datum=WGS84 +units=m +no_defs"/>

    <type id="highway.residential" priority="3" numLanes="1" speed="13.89" disallow="tram rail_urban rail rail_electric rail_fast ship container cable_car subway aircraft wheelchair scooter drone" oneway="0"/>
    <type id="highway.secondary" priority="11" numLanes="1" speed="27.78" disallow="tram rail_urban rail rail_electric rail_fast ship container cable_car subway aircraft wheelchair scooter drone" oneway="0"/>
    <type id="highway.tertiary" priority="10" numLanes="1" speed="22.22" disallow="tram rail_urban rail rail_electric rail_fast ship container cable_car subway aircraft wheelchair scooter drone" oneway="0"/>

    <edge id=":1027663961_0" function="internal">
        <lane id=":1027663961_0_0" index="0" disallow="tram rail_urban rail rail_electric rail_fast ship container cable_car subway aircraft wheelchair scooter drone" speed="3.65" length="4.67" shape="3502.03,574.96 3500.64,574.55 3500.02,573.91 3500.17,573.03 3501.07,571.90"/>
    </edge>
    <edge id=":1027663980_0" function="internal">
        <lane id=":1027663980_0_0" index="0" disallow="tram rail_urban rail rail_electric rail_fast ship container cable_car subway aircraft wheelchair scooter drone" speed="3.65" length="4.67" shape="3517.01,649.67 3515.81,648.88 3515.40,648.08 3515.79,647.28 3516.99,646.47"/>
    </edge>
    <edge id=":1027663997_0" function="internal">
        <lane id=":1027663997_0_0" index="0" disallow="tram rail_urban rail rail_electric rail_fast ship container cable_car subway aircraft wheelchair scooter drone" speed="13.89" length="14.47" shape="3572.49,719.32 3558.02,719.54"/>
    </edge>
    <edge id=":1027663997_1" function="internal">
        <lane id=":1027663997_1_0" index="0" disallow="tram rail_urban rail rail_electric rail_fast ship container cable_car subway aircraft wheelchair scooter drone" speed="7.98" length="4.13" shape="3572.49,719.32 3568.61,718.85 3568.41,718.74"/>
    </edge>
    <edge id=":1027663997_2" function="internal">
        <lane id=":1027663997_2_0" index="0" disallow="tram rail_urban rail rail_electric rail_fast ship container cable_car subway aircraft wheelchair scooter drone" speed="3.65" length="1.44" shape="3572.49,719.32 3571.27,718.54"/>
    </edge>
    <edge id=":1027663997_9" function="internal">
        <lane id=":1027663997_9_0" index="0" disallow="tram rail_urban rail rail_electric rail_fast ship container cable_car subway aircraft wheelchair scooter drone" speed="7.98" length="10.11" shape="3568.41,718.74 3565.82,717.25 3564.13,714.52 3563.55,710.65"/>
    </edge>
    <edge id=":1027663997_10" function="internal">
        <lane id=":1027663997_10_0" index="0" disallow="tram rail_urban rail rail_electric rail_fast ship container cable_car subway aircraft wheelchair scooter drone" speed="3.65" length="3.23" shape="3571.27,718.54 3570.85,717.75 3571.23,716.94 3572.42,716.12"/>
    </edge>
    <edge id=":1027663997_3" function="internal">
        <lane id=":1027663997_3_0" index="0" disallow="tram rail_urban rail rail_electric rail_fast ship container cable_car subway aircraft wheelchair scooter drone" speed="6.48" length="9.03" shape="3566.74,710.62 3567.12,713.07 3568.19,714.81 3569.95,715.82 3572.42,716.12"/>
    </edge>
    <edge id=":1027663997_4" function="internal">
        <lane id=":1027663997_4_0" index="0" disallow="tram rail_urban rail rail_electric rail_fast ship container cable_car subway aircraft wheelchair scooter drone" speed="8.01" length="14.23" shape="3566.74,710.62 3566.23,714.50 3564.60,717.27 3561.87,718.95 3558.02,719.54"/>
    </edge>
    <edge id=":1027663997_5" function="internal">
        <lane id=":1027663997_5_0" index="0" disallow="tram rail_urban rail rail_electric rail_fast ship container cable_car subway aircraft wheelchair scooter drone" speed="3.65" length="4.67" shape="3566.74,710.62 3565.96,711.83 3565.16,712.24 3564.36,711.84 3563.55,710.65"/>
    </edge>
    <edge id=":1027663997_6" function="internal">
        <lane id=":1027663997_6_0" index="0" disallow="tram rail_urban rail rail_electric rail_fast ship container cable_car subway aircraft wheelchair scooter drone" speed="6.52" length="9.06" shape="3557.99,716.34 3560.44,715.96 3562.18,714.89 3563.22,713.12 3563.55,710.65"/>
    </edge>
    <edge id=":1027663997_7" function="internal">
        <lane id=":1027663997_7_0" index="0" disallow="tram rail_urban rail rail_electric rail_fast ship container cable_car subway aircraft wheelchair scooter drone" speed="13.89" length="14.42" shape="3557.99,716.34 3572.42,716.12"/>
    </edge>
    <edge id=":1027663997_8" function="internal">
        <lane id=":1027663997_8_0" index="0" disallow="tram rail_urban rail rail_electric rail_fast ship container cable_car subway aircraft wheelchair scooter drone" speed="3.65" length="1.44" shape="3557.99,716.34 3559.20,717.13"/>
    </edge>
    <edge id=":1027663997_11" function="internal">
        <lane id=":1027663997_11_0" index="0" disallow="tram rail_urban rail rail_electric rail_fast ship container cable_car subway aircraft wheelchair scooter drone" speed="3.65" length="3.23" shape="3559.20,717.13 3559.61,717.92 3559.21,718.73 3558.02,719.54"/>
    </edge>
    <edge id=":1042197136_0" function="internal">
        <lane id=":1042197136_0_0" index="0" disallow="tram rail_urban rail rail_electric rail_fast ship container cable_car subway aircraft wheelchair scooter drone" speed="11.11" length="14.60" shape="886.34,1289.66 884.71,1304.16"/>
    </edge>
    <edge id=":1042197136_1" function="internal">
        <lane id=":1042197136_1_0" index="0" disallow="tram rail_urban rail rail_electric rail_fast ship container cable_car subway aircraft wheelchair scooter drone" speed="7.77" length="4.31" shape="886.34,1289.66 885.35,1293.66 885.24,1293.81"/>
    </edge>
    <edge id=":1042197136_2" function="internal">
        <lane id=":1042197136_2_0" index="0" disallow="tram rail_urban rail rail_electric rail_fast ship container cable_car subway aircraft wheelchair scooter drone" speed="3.65" length="1.44" shape="886.34,1289.66 885.42,1290.77"/>
    </edge>
    <edge id=":1042197136_9" function="internal">
        <lane id=":1042197136_9_0" index="0" disallow="tram rail_urban rail rail_electric rail_fast ship container cable_car subway aircraft wheelchair scooter drone" speed="7.77" length="10.45" shape="885.24,1293.81 883.33,1296.21 880.26,1297.28 876.15,1296.90"/>
    </edge>
    <edge id=":1042197136_10" function="internal">
        <lane id=":1042197136_10_0" index="0" disallow="tram rail_urban rail rail_electric rail_fast ship container cable_car subway aircraft wheelchair scooter drone" speed="3.65" length="3.23" shape="885.42,1290.77 884.59,1291.09 883.83,1290.62 883.15,1289.35"/>
    </edge>
    <edge id=":1042197136_3" function="internal">
        <lane id=":1042197136_3_0" index="0" disallow="tram rail_urban rail rail_electric rail_fast ship container cable_car subway aircraft wheelchair scooter drone" speed="6.22" length="9.05" shape="876.91,1293.79 879.43,1294.02 881.31,1293.36 882.55,1291.80 883.15,1289.35"/>
    </edge>
    <edge id=":1042197136_4" function="internal">
        <lane id=":1042197136_4_0" index="0" disallow="tram rail_urban rail rail_electric rail_fast ship container cable_car subway aircraft wheelchair scooter drone" speed="8.41" length="14.47" shape="876.91,1293.79 880.72,1295.24 883.29,1297.45 884.62,1300.43 884.71,1304.16"/>
    </edge>
    <edge id=":1042197136_5" function="internal">
        <lane id=":1042197136_5_0" index="0" disallow="tram rail_urban rail rail_electric rail_fast ship container cable_car subway aircraft wheelchair scooter drone" speed="3.65" length="4.67" shape="876.91,1293.79 877.89,1294.85 878.09,1295.72 877.51,1296.40 876.15,1296.90"/>
    </edge>
    <edge id=":1042197136_6" function="internal">
        <lane id=":1042197136_6_0" index="0" disallow="tram rail_urban rail rail_electric rail_fast ship container cable_car subway aircraft wheelchair scooter drone" speed="7.00" length="9.71" shape="881.54,1303.76 881.46,1301.31 880.54,1299.35 878.77,1297.88 876.15,1296.90"/>
    </edge>
    <edge id=":1042197136_7" function="internal">
        <lane id=":1042197136_7_0" index="0" disallow="tram rail_urban rail rail_electric rail_fast ship container cable_car subway aircraft wheelchair scooter drone" speed="11.11" length="14.50" shape="881.54,1303.76 883.15,1289.35"/>
    </edge>
    <edge id=":1042197136_8" function="internal">
        <lane id=":1042197136_8_0" index="0" disallow="tram rail_urban rail rail_electric rail_fast ship container cable_car subway aircraft wheelchair scooter drone" speed="3.65" length="1.44" shape="881.54,1303.76 882.49,1302.67"/>
    </edge>
    <edge id=":1042197136_11" function="internal">
        <lane id=":1042197136_11_0" index="0" disallow="tram rail_urban rail rail_electric rail_fast ship container cable_car subway aircraft wheelchair scooter drone" speed="3.65" length="3.23" shape="882.49,1302.67 883.33,1302.37 884.07,1302.87 884.71,1304.16"/>
    </edge>
    <edge id=":1042197168_0" function="internal">
        <lane id=":1042197168_0_0" index="0" disallow="tram rail_urban rail rail_electric rail_fast ship container cable_car subway aircraft wheelchair scooter drone" speed="3.65" length="4.67" shape="834.88,1339.33 833.85,1340.34 832.98,1340.57 832.28,1340.01 831.74,1338.67"/>
    </edge>
    <edge id=":1042197243_0" function="internal">
        <lane id=":1042197243_0_0" index="0" disallow="tram rail_urban rail rail_electric rail_fast ship container cable_car subway aircraft wheelchair scooter drone" speed="3.65" length="4.67" shape="788.33,1307.50 789.59,1308.19 790.05,1308.96 789.72,1309.79 788.59,1310.68"/>
    </edge>
    <edge id=":1042206962_0" function="internal">
        <lane id=":1042206962_0_0" index="0" disallow="tram rail_urban rail rail_electric rail_fast ship container cable_car subway aircraft wheelchair scooter drone" speed="3.65" length="4.67" shape="947.07,1223.23 947.84,1224.45 947.88,1225.34 947.19,1225.91 945.77,1226.15"/>
    </edge>
    <edge id=":11121550982_0" function="internal">
        <lane id=":11121550982_0_0" index="0" disallow="tram rail_urban rail rail_electric rail_fast ship container cable_car subway aircraft wheelchair scooter drone" speed="13.89" length="0.54" shape="1930.31,1057.64 1930.18,1057.55 1930.10,1057.47 1930.03,1057.39 1929.94,1057.25"/>
    </edge>
    <edge id=":1396480397_0" function="internal">
        <lane id=":1396480397_0_0" index="0" disallow="tram rail_urban rail rail_electric rail_fast ship container cable_car subway aircraft wheelchair scooter drone" speed="3.65" length="4.67" shape="1022.11,1468.85 1021.07,1469.86 1020.21,1470.09 1019.51,1469.53 1018.97,1468.19"/>
    </edge>
    <edge id=":1445852115_0" function="internal">
        <lane id=":1445852115_0_0" index="0" disallow="tram rail_urban rail rail_electric rail_fast ship container cable_car subway aircraft wheelchair scooter drone" speed="3.65" length="4.67" shape="2083.53,1175.79 2084.51,1174.74 2085.37,1174.47 2086.09,1174.99 2086.69,1176.31"/>
    </edge>
    <edge id=":1445852117_0" function="internal">
        <lane id=":1445852117_0_0" index="0" disallow="tram rail_urban rail rail_electric rail_fast ship container cable_car subway aircraft wheelchair scooter drone" speed="6.76" length="9.14" shape="2086.52,1211.30 2084.00,1211.20 2081.99,1211.87 2080.50,1213.32 2079.53,1215.54"/>
    </edge>
    <edge id=":1445852117_1" function="internal">
        <lane id=":1445852117_1_0" index="0" disallow="tram rail_urban rail rail_electric rail_fast ship container cable_car subway aircraft wheelchair scooter drone" speed="8.00" length="14.06" shape="2086.52,1211.30 2082.87,1210.11 2080.46,1208.03 2079.29,1205.06 2079.37,1201.22"/>
    </edge>
    <edge id=":1445852117_2" function="internal">
        <lane id=":1445852117_2_0" index="0" disallow="tram rail_urban rail rail_electric rail_fast ship container cable_car subway aircraft wheelchair scooter drone" speed="3.65" length="4.67" shape="2086.52,1211.30 2085.48,1210.31 2085.22,1209.45 2085.76,1208.73 2087.08,1208.15"/>
    </edge>
    <edge id=":1445852117_3" function="internal">
        <lane id=":1445852117_3_0" index="0" disallow="tram rail_urban rail rail_electric rail_fast ship container cable_car subway aircraft wheelchair scooter drone" speed="6.51" length="8.95" shape="2082.53,1201.73 2082.48,1204.18 2083.22,1206.07 2084.75,1207.39 2087.08,1208.15"/>
    </edge>
    <edge id=":1445852117_4" function="internal">
        <lane id=":1445852117_4_0" index="0" disallow="tram rail_urban rail rail_electric rail_fast ship container cable_car subway aircraft wheelchair scooter drone" speed="13.89" length="14.13" shape="2082.53,1201.73 2081.90,1205.29 2081.22,1208.68 2080.44,1212.04 2079.53,1215.54"/>
    </edge>
    <edge id=":1445852117_5" function="internal">
        <lane id=":1445852117_5_0" index="0" disallow="tram rail_urban rail rail_electric rail_fast ship container cable_car subway aircraft wheelchair scooter drone" speed="3.65" length="1.44" shape="2082.53,1201.73 2081.54,1202.79"/>
    </edge>
    <edge id=":1445852117_9" function="internal">
        <lane id=":1445852117_9_0" index="0" disallow="tram rail_urban rail rail_electric rail_fast ship container cable_car subway aircraft wheelchair scooter drone" speed="3.65" length="3.23" shape="2081.54,1202.79 2080.69,1203.05 2079.96,1202.53 2079.37,1201.22"/>
    </edge>
    <edge id=":1445852117_6" function="internal">
        <lane id=":1445852117_6_0" index="0" disallow="tram rail_urban rail rail_electric rail_fast ship container cable_car subway aircraft wheelchair scooter drone" speed="13.89" length="13.80" shape="2076.44,1214.69 2077.34,1211.25 2078.10,1208.00 2078.76,1204.73 2079.37,1201.22"/>
    </edge>
    <edge id=":1445852117_7" function="internal">
        <lane id=":1445852117_7_0" index="0" disallow="tram rail_urban rail rail_electric rail_fast ship container cable_car subway aircraft wheelchair scooter drone" speed="8.22" length="3.86" shape="2076.44,1214.69 2077.93,1211.27 2078.03,1211.18"/>
    </edge>
    <edge id=":1445852117_8" function="internal">
        <lane id=":1445852117_8_0" index="0" disallow="tram rail_urban rail rail_electric rail_fast ship container cable_car subway aircraft wheelchair scooter drone" speed="3.65" length="1.44" shape="2076.44,1214.69 2077.53,1213.75"/>
    </edge>
    <edge id=":1445852117_10" function="internal">
        <lane id=":1445852117_10_0" index="0" disallow="tram rail_urban rail rail_electric rail_fast ship container cable_car subway aircraft wheelchair scooter drone" speed="8.22" length="10.10" shape="2078.03,1211.18 2080.20,1209.04 2083.25,1208.00 2087.08,1208.15"/>
    </edge>
    <edge id=":1445852117_11" function="internal">
        <lane id=":1445852117_11_0" index="0" disallow="tram rail_urban rail rail_electric rail_fast ship container cable_car subway aircraft wheelchair scooter drone" speed="3.65" length="3.23" shape="2077.53,1213.75 2078.41,1213.57 2079.08,1214.17 2079.53,1215.54"/>
    </edge>
    <edge id=":1445852121_0" function="internal">
        <lane id=":1445852121_0_0" index="0" disallow="tram rail_urban rail rail_electric rail_fast ship container cable_car subway aircraft wheelchair scooter drone" speed="3.65" length="4.67" shape="2070.58,1248.24 2069.49,1249.19 2068.62,1249.36 2067.95,1248.77 2067.50,1247.40"/>
    </edge>
    <edge id=":1445852122_0" function="internal">
        <lane id=":1445852122_0_0" index="0" disallow="tram rail_urban rail rail_electric rail_fast ship container cable_car subway aircraft wheelchair scooter drone" speed="6.58" length="9.12" shape="3668.88,1260.09 3668.47,1257.65 3667.36,1255.92 3665.56,1254.88 3663.07,1254.54"/>
    </edge>
    <edge id=":1445852122_1" function="internal">
        <lane id=":1445852122_1_0" index="0" disallow="tram rail_urban rail rail_electric rail_fast ship container cable_car subway aircraft wheelchair scooter drone" speed="13.89" length="14.39" shape="3668.88,1260.09 3668.57,1245.69"/>
    </edge>
    <edge id=":1445852122_2" function="internal">
        <lane id=":1445852122_2_0" index="0" disallow="tram rail_urban rail rail_electric rail_fast ship container cable_car subway aircraft wheelchair scooter drone" speed="3.65" length="1.44" shape="3668.88,1260.09 3669.65,1258.87"/>
    </edge>
    <edge id=":1445852122_9" function="internal">
        <lane id=":1445852122_9_0" index="0" disallow="tram rail_urban rail rail_electric rail_fast ship container cable_car subway aircraft wheelchair scooter drone" speed="3.65" length="3.23" shape="3669.65,1258.87 3670.44,1258.45 3671.25,1258.83 3672.08,1260.01"/>
    </edge>
    <edge id=":1445852122_3" function="internal">
        <lane id=":1445852122_3_0" index="0" disallow="tram rail_urban rail rail_electric rail_fast ship container cable_car subway aircraft wheelchair scooter drone" speed="13.89" length="14.38" shape="3671.77,1245.63 3672.08,1260.01"/>
    </edge>
    <edge id=":1445852122_4" function="internal">
        <lane id=":1445852122_4_0" index="0" disallow="tram rail_urban rail rail_electric rail_fast ship container cable_car subway aircraft wheelchair scooter drone" speed="7.98" length="4.06" shape="3671.77,1245.63 3671.29,1249.52 3671.22,1249.65"/>
    </edge>
    <edge id=":1445852122_5" function="internal">
        <lane id=":1445852122_5_0" index="0" disallow="tram rail_urban rail rail_electric rail_fast ship container cable_car subway aircraft wheelchair scooter drone" speed="3.65" length="1.44" shape="3671.77,1245.63 3670.99,1246.85"/>
    </edge>
    <edge id=":1445852122_10" function="internal">
        <lane id=":1445852122_10_0" index="0" disallow="tram rail_urban rail rail_electric rail_fast ship container cable_car subway aircraft wheelchair scooter drone" speed="7.98" length="10.19" shape="3671.22,1249.65 3669.68,1252.30 3666.94,1253.97 3663.07,1254.54"/>
    </edge>
    <edge id=":1445852122_11" function="internal">
        <lane id=":1445852122_11_0" index="0" disallow="tram rail_urban rail rail_electric rail_fast ship container cable_car subway aircraft wheelchair scooter drone" speed="3.65" length="3.23" shape="3670.99,1246.85 3670.20,1247.26 3669.39,1246.88 3668.57,1245.69"/>
    </edge>
    <edge id=":1445852122_6" function="internal">
        <lane id=":1445852122_6_0" index="0" disallow="tram rail_urban rail rail_electric rail_fast ship container cable_car subway aircraft wheelchair scooter drone" speed="6.48" length="9.03" shape="3663.06,1251.34 3665.51,1250.98 3667.25,1249.92 3668.27,1248.16 3668.57,1245.69"/>
    </edge>
    <edge id=":1445852122_7" function="internal">
        <lane id=":1445852122_7_0" index="0" disallow="tram rail_urban rail rail_electric rail_fast ship container cable_car subway aircraft wheelchair scooter drone" speed="8.06" length="14.21" shape="3663.06,1251.34 3666.93,1251.87 3669.72,1253.49 3671.44,1256.20 3672.08,1260.01"/>
    </edge>
    <edge id=":1445852122_8" function="internal">
        <lane id=":1445852122_8_0" index="0" disallow="tram rail_urban rail rail_electric rail_fast ship container cable_car subway aircraft wheelchair scooter drone" speed="3.65" length="4.67" shape="3663.06,1251.34 3664.26,1252.14 3664.66,1252.94 3664.27,1253.74 3663.07,1254.54"/>
    </edge>
    <edge id=":1445852123_0" function="internal">
        <lane id=":1445852123_0_0" index="0" disallow="tram rail_urban rail rail_electric rail_fast ship container cable_car subway aircraft wheelchair scooter drone" speed="3.65" length="4.67" shape="3624.07,1254.72 3622.86,1253.93 3622.46,1253.13 3622.86,1252.33 3624.05,1251.52"/>
    </edge>
    <edge id=":1454494046_0" function="internal">
        <lane id=":1454494046_0_0" index="0" disallow="tram rail_urban rail rail_electric rail_fast ship container cable_car subway aircraft wheelchair scooter drone" speed="15.28" length="0.30" shape="414.12,824.76 413.83,824.71"/>
        <lane id=":1454494046_0_1" index="1" disallow="tram rail_urban rail rail_electric rail_fast ship container cable_car subway aircraft wheelchair scooter drone" speed="15.28" length="0.30" shape="414.69,821.61 414.40,821.56"/>
    </edge>
    <edge id=":1454494046_2" function="internal">
        <lane id=":1454494046_2_0" index="0" disallow="tram rail_urban rail rail_electric rail_fast ship container cable_car subway aircraft wheelchair scooter drone" speed="15.28" length="0.30" shape="415.53,815.26 415.83,815.31"/>
        <lane id=":1454494046_2_1" index="1" disallow="tram rail_urban rail rail_electric rail_fast ship container cable_car subway aircraft wheelchair scooter drone" speed="15.28" length="0.30" shape="414.97,818.41 415.26,818.46"/>
    </edge>
    <edge id=":1465582706_0" function="internal">
        <lane id=":1465582706_0_0" index="0" disallow="tram rail_urban rail rail_electric rail_fast ship container cable_car subway aircraft wheelchair scooter drone" speed="13.89" length="0.10" shape="3757.80,820.37 3757.80,820.37"/>
        <lane id=":1465582706_0_1" index="1" disallow="tram rail_urban rail rail_electric rail_fast ship container cable_car subway aircraft wheelchair scooter drone" speed="13.89" length="0.10" shape="3757.79,817.17 3757.79,817.17"/>
    </edge>
    <edge id=":1465582706_2" function="internal">
        <lane id=":1465582706_2_0" index="0" disallow="tram rail_urban rail rail_electric rail_fast ship container cable_car subway aircraft wheelchair scooter drone" speed="13.89" length="0.10" shape="3757.76,810.77 3757.76,810.77"/>
        <lane id=":1465582706_2_1" index="1" disallow="tram rail_urban rail rail_electric rail_fast ship container cable_car subway aircraft wheelchair scooter drone" speed="13.89" length="0.10" shape="3757.77,813.97 3757.77,813.97"/>
    </edge>
    <edge id=":1509404796_0" function="internal">
        <lane id=":1509404796_0_0" index="0" disallow="tram rail_urban rail rail_electric rail_fast ship container cable_car subway aircraft wheelchair scooter drone" speed="13.89" length="0.34" shape="3657.12,843.81 3657.12,843.45"/>
        <lane id=":1509404796_0_1" index="1" disallow="tram rail_urban rail rail_electric rail_fast ship container cable_car subway aircraft wheelchair scooter drone" speed="13.89" length="0.34" shape="3660.32,843.77 3660.32,843.46"/>
    </edge>
    <edge id=":1509404796_2" function="internal">
        <lane id=":1509404796_2_0" index="0" disallow="tram rail_urban rail rail_electric rail_fast ship container cable_car subway aircraft wheelchair scooter drone" speed="13.89" length="0.24" shape="3666.72,843.48 3666.72,843.69"/>
        <lane id=":1509404796_2_1" index="1" disallow="tram rail_urban rail rail_electric rail_fast ship container cable_car subway aircraft wheelchair scooter drone" speed="13.89" length="0.24" shape="3663.52,843.47 3663.52,843.73"/>
    </edge>
    <edge id=":1509404797_0" function="internal">
        <lane id=":1509404797_0_0" index="0" disallow="tram rail_urban rail rail_electric rail_fast ship container cable_car subway aircraft wheelchair scooter drone" speed="13.89" length="0.35" shape="3657.31,861.17 3657.30,860.79"/>
        <lane id=":1509404797_0_1" index="1" disallow="tram rail_urban rail rail_electric rail_fast ship container cable_car subway aircraft wheelchair scooter drone" speed="13.89" length="0.35" shape="3660.50,861.08 3660.50,860.77"/>
    </edge>
    <edge id=":1509404797_2" function="internal">
        <lane id=":1509404797_2_0" index="0" disallow="tram rail_urban rail rail_electric rail_fast ship container cable_car subway aircraft wheelchair scooter drone" speed="13.89" length="0.19" shape="3666.90,860.74 3666.90,860.89"/>
        <lane id=":1509404797_2_1" index="1" disallow="tram rail_urban rail rail_electric rail_fast ship container cable_car subway aircraft wheelchair scooter drone" speed="13.89" length="0.19" shape="3663.70,860.76 3663.70,860.99"/>
    </edge>
    <edge id=":1551247472_0" function="internal">
        <lane id=":1551247472_0_0" index="0" disallow="tram rail_urban rail rail_electric rail_fast ship container cable_car subway aircraft wheelchair scooter drone" speed="6.09" length="7.35" shape="1531.41,1197.27 1529.52,1196.62 1528.25,1195.52 1527.60,1193.97 1527.56,1191.98"/>
    </edge>
    <edge id=":1551247472_1" function="internal">
        <lane id=":1551247472_1_0" index="0" disallow="tram rail_urban rail rail_electric rail_fast ship container cable_car subway aircraft wheelchair scooter drone" speed="3.65" length="4.67" shape="1531.41,1197.27 1530.39,1196.25 1530.14,1195.39 1530.69,1194.68 1532.02,1194.13"/>
    </edge>
    <edge id=":1551247472_2" function="internal">
        <lane id=":1551247472_2_0" index="0" disallow="tram rail_urban rail rail_electric rail_fast ship container cable_car subway aircraft wheelchair scooter drone" speed="3.91" length="2.45" shape="1530.74,1192.36 1530.75,1193.03 1530.97,1193.54 1531.39,1193.91 1532.02,1194.13"/>
    </edge>
    <edge id=":1551247472_3" function="internal">
        <lane id=":1551247472_3_0" index="0" disallow="tram rail_urban rail rail_electric rail_fast ship container cable_car subway aircraft wheelchair scooter drone" speed="3.65" length="4.67" shape="1530.74,1192.36 1529.80,1193.46 1528.96,1193.76 1528.21,1193.27 1527.56,1191.98"/>
    </edge>
    <edge id=":1620523353_0" function="internal">
        <lane id=":1620523353_0_0" index="0" disallow="tram rail_urban rail rail_electric rail_fast ship container cable_car subway aircraft wheelchair scooter drone" speed="3.65" length="4.67" shape="1893.76,883.12 1894.75,882.08 1895.61,881.83 1896.33,882.36 1896.90,883.68"/>
    </edge>
    <edge id=":1620523454_0" function="internal">
        <lane id=":1620523454_0_0" index="0" disallow="tram rail_urban rail rail_electric rail_fast ship container cable_car subway aircraft wheelchair scooter drone" speed="3.65" length="4.67" shape="2559.73,1226.08 2558.68,1225.09 2558.42,1224.23 2558.95,1223.51 2560.27,1222.92"/>
    </edge>
    <edge id=":1620523483_0" function="internal">
        <lane id=":1620523483_0_0" index="0" disallow="tram rail_urban rail rail_electric rail_fast ship container cable_car subway aircraft wheelchair scooter drone" speed="6.60" length="9.15" shape="2786.72,1270.18 2784.26,1270.07 2782.32,1270.79 2780.92,1272.34 2780.04,1274.71"/>
    </edge>
    <edge id=":1620523483_1" function="internal">
        <lane id=":1620523483_1_0" index="0" disallow="tram rail_urban rail rail_electric rail_fast ship container cable_car subway aircraft wheelchair scooter drone" speed="13.89" length="14.39" shape="2786.72,1270.18 2772.59,1267.43"/>
    </edge>
    <edge id=":1620523483_2" function="internal">
        <lane id=":1620523483_2_0" index="0" disallow="tram rail_urban rail rail_electric rail_fast ship container cable_car subway aircraft wheelchair scooter drone" speed="3.65" length="1.44" shape="2786.72,1270.18 2785.69,1269.17"/>
    </edge>
    <edge id=":1620523483_9" function="internal">
        <lane id=":1620523483_9_0" index="0" disallow="tram rail_urban rail rail_electric rail_fast ship container cable_car subway aircraft wheelchair scooter drone" speed="3.65" length="3.23" shape="2785.69,1269.17 2785.45,1268.31 2785.99,1267.60 2787.32,1267.04"/>
    </edge>
    <edge id=":1620523483_3" function="internal">
        <lane id=":1620523483_3_0" index="0" disallow="tram rail_urban rail rail_electric rail_fast ship container cable_car subway aircraft wheelchair scooter drone" speed="13.89" length="14.38" shape="2773.21,1264.29 2787.32,1267.04"/>
    </edge>
    <edge id=":1620523483_4" function="internal">
        <lane id=":1620523483_4_0" index="0" disallow="tram rail_urban rail rail_electric rail_fast ship container cable_car subway aircraft wheelchair scooter drone" speed="7.97" length="4.06" shape="2773.21,1264.29 2776.91,1265.59 2777.02,1265.69"/>
    </edge>
    <edge id=":1620523483_5" function="internal">